*SPEF "IEEE 1481.1999"
*DESIGN "alarm_clock_top"
*DATE "16:38:33 Saturday October 07, 2023"
*VENDOR "unknown"
*PROGRAM "qrouter"
*VERSION "unknown"
*DESIGN_FLOW "qflow"
*DIVIDER /
*DELIMITER :
*BUS_DELIMITER <>
*T_UNIT 1 PS
*C_UNIT 1 FF
*R_UNIT 1 OHM
*L_UNIT 1 HENRY

*NAME_MAP
*1 alreg1_load_new_alarm
*2 NOR2X1_47
*3 MUX2X1_12
*4 MUX2X1_10
*5 MUX2X1_16
*6 MUX2X1_15
*7 MUX2X1_2
*8 MUX2X1_4
*9 MUX2X1_13
*10 MUX2X1_3
*11 MUX2X1_1
*12 MUX2X1_14
*13 MUX2X1_11
*14 MUX2X1_9
*15 MUX2X1_6
*16 MUX2X1_8
*17 MUX2X1_5
*18 MUX2X1_7
*19 _92_
*20 INVX8_2
*21 OAI21X1_22
*22 OAI21X1_20
*23 OAI21X1_18
*24 OAI21X1_24
*25 OAI21X1_17
*26 OAI21X1_15
*27 OAI21X1_13
*28 OAI21X1_27
*29 OAI21X1_25
*30 OAI21X1_30
*31 OAI21X1_33
*32 OAI21X1_36
*33 OAI21X1_35
*34 OAI21X1_32
*35 OAI21X1_11
*36 OAI21X1_38
*37 fsm1_shift
*38 AND2X2_4
*39 MUX2X1_28
*40 MUX2X1_32
*41 MUX2X1_31
*42 MUX2X1_29
*43 MUX2X1_30
*44 MUX2X1_25
*45 MUX2X1_17
*46 MUX2X1_24
*47 MUX2X1_23
*48 MUX2X1_22
*49 MUX2X1_21
*50 MUX2X1_26
*51 MUX2X1_27
*52 MUX2X1_18
*53 MUX2X1_20
*54 MUX2X1_19
*55 reset_bF_buf9
*56 CLKBUF1_9
*57 NOR2X1_19
*58 NOR2X1_25
*59 DFFPOSX1_78
*60 DFFPOSX1_33
*61 DFFPOSX1_46
*62 DFFPOSX1_13
*63 DFFPOSX1_15
*64 DFFPOSX1_77
*65 NOR2X1_17
*66 DFFPOSX1_35
*67 NOR2X1_22
*68 NOR2X1_20
*69 reset_bF_buf8
*70 CLKBUF1_10
*71 INVX8_2
*72 DFFPOSX1_108
*73 NOR2X1_14
*74 NOR2X1_81
*75 DFFPOSX1_133
*76 NOR2X1_83
*77 DFFPOSX1_134
*78 DFFPOSX1_131
*79 DFFPOSX1_122
*80 NOR2X1_80
*81 DFFPOSX1_79
*82 DFFPOSX1_40
*83 reset_bF_buf7
*84 CLKBUF1_11
*85 NOR2X1_13
*86 DFFPOSX1_42
*87 NOR2X1_82
*88 DFFPOSX1_132
*89 NOR2X1_78
*90 DFFPOSX1_120
*91 DFFPOSX1_39
*92 NOR2X1_26
*93 NOR2X1_27
*94 NOR2X1_84
*95 DFFPOSX1_66
*96 DFFPOSX1_71
*97 reset_bF_buf6
*98 CLKBUF1_12
*99 DFFPOSX1_114
*100 AOI21X1_29
*101 DFFPOSX1_113
*102 DFFPOSX1_107
*103 AOI21X1_31
*104 DFFPOSX1_10
*105 DFFPOSX1_7
*106 DFFPOSX1_8
*107 DFFPOSX1_17
*108 DFFPOSX1_106
*109 NOR2X1_104
*110 reset_bF_buf5
*111 CLKBUF1_13
*112 DFFPOSX1_14
*113 DFFPOSX1_16
*114 DFFPOSX1_11
*115 DFFPOSX1_80
*116 DFFPOSX1_36
*117 NOR2X1_23
*118 NOR2X1_21
*119 DFFPOSX1_34
*120 AOI21X1_32
*121 DFFPOSX1_115
*122 DFFPOSX1_12
*123 reset_bF_buf4
*124 CLKBUF1_14
*125 DFFPOSX1_98
*126 INVX2_11
*127 DFFPOSX1_105
*128 DFFPOSX1_1
*129 DFFPOSX1_5
*130 DFFPOSX1_4
*131 DFFPOSX1_9
*132 DFFPOSX1_6
*133 DFFPOSX1_3
*134 DFFPOSX1_100
*135 DFFPOSX1_97
*136 reset_bF_buf3
*137 CLKBUF1_15
*138 NOR2X1_75
*139 DFFPOSX1_125
*140 DFFPOSX1_69
*141 DFFPOSX1_70
*142 NOR2X1_12
*143 DFFPOSX1_99
*144 DFFPOSX1_41
*145 DFFPOSX1_72
*146 DFFPOSX1_43
*147 NOR2X1_74
*148 DFFPOSX1_124
*149 reset_bF_buf2
*150 CLKBUF1_16
*151 NOR2X1_79
*152 DFFPOSX1_121
*153 DFFPOSX1_65
*154 DFFPOSX1_67
*155 DFFPOSX1_128
*156 NOR2X1_70
*157 NOR2X1_71
*158 DFFPOSX1_75
*159 NOR2X1_72
*160 DFFPOSX1_129
*161 NOR2X1_24
*162 reset_bF_buf1
*163 CLKBUF1_17
*164 NOR2X1_77
*165 DFFPOSX1_119
*166 NOR2X1_15
*167 DFFPOSX1_44
*168 DFFPOSX1_126
*169 NOR2X1_76
*170 DFFPOSX1_37
*171 NOR2X1_69
*172 DFFPOSX1_127
*173 DFFPOSX1_123
*174 NOR2X1_73
*175 reset_bF_buf0
*176 CLKBUF1_18
*177 DFFPOSX1_48
*178 DFFPOSX1_76
*179 DFFPOSX1_68
*180 DFFPOSX1_130
*181 DFFPOSX1_47
*182 NOR2X1_18
*183 DFFPOSX1_73
*184 DFFPOSX1_74
*185 DFFPOSX1_45
*186 NOR2X1_16
*187 DFFPOSX1_38
*188 clock_bF_buf7
*189 CLKBUF1_1
*190 DFFPOSX1_58
*191 DFFPOSX1_136
*192 DFFPOSX1_82
*193 DFFPOSX1_135
*194 DFFPOSX1_60
*195 DFFPOSX1_143
*196 DFFPOSX1_142
*197 DFFPOSX1_81
*198 DFFPOSX1_137
*199 DFFPOSX1_53
*200 clock_bF_buf6
*201 CLKBUF1_2
*202 DFFPOSX1_86
*203 DFFPOSX1_57
*204 DFFPOSX1_102
*205 DFFPOSX1_88
*206 DFFPOSX1_85
*207 DFFPOSX1_141
*208 DFFPOSX1_140
*209 DFFPOSX1_139
*210 DFFPOSX1_103
*211 DFFPOSX1_104
*212 clock_bF_buf5
*213 CLKBUF1_3
*214 DFFPOSX1_83
*215 DFFPOSX1_144
*216 DFFPOSX1_91
*217 DFFPOSX1_89
*218 DFFPOSX1_146
*219 DFFPOSX1_84
*220 DFFPOSX1_63
*221 DFFPOSX1_90
*222 DFFPOSX1_61
*223 DFFPOSX1_145
*224 reset
*225 CLKBUF1_9
*226 CLKBUF1_13
*227 CLKBUF1_12
*228 CLKBUF1_10
*229 CLKBUF1_11
*230 CLKBUF1_16
*231 CLKBUF1_17
*232 CLKBUF1_15
*233 CLKBUF1_14
*234 CLKBUF1_18
*235 _324_
*236 NOR2X1_104
*237 OAI21X1_5
*238 OAI21X1_6
*239 OAI21X1_7
*240 OAI21X1_2
*241 OAI21X1_3
*242 OAI21X1_4
*243 INVX2_15
*244 OAI21X1_68
*245 OAI21X1_67
*246 OAI21X1_1
*247 clock_bF_buf4
*248 CLKBUF1_4
*249 DFFPOSX1_2
*250 DFFPOSX1_110
*251 DFFPOSX1_21
*252 DFFPOSX1_20
*253 DFFPOSX1_109
*254 DFFPOSX1_19
*255 DFFPOSX1_101
*256 DFFPOSX1_18
*257 DFFPOSX1_111
*258 clock_bF_buf3
*259 CLKBUF1_5
*260 DFFPOSX1_148
*261 DFFPOSX1_150
*262 DFFPOSX1_147
*263 DFFPOSX1_149
*264 DFFPOSX1_112
*265 DFFPOSX1_59
*266 DFFPOSX1_87
*267 DFFPOSX1_55
*268 DFFPOSX1_138
*269 clock_bF_buf2
*270 CLKBUF1_6
*271 DFFPOSX1_23
*272 DFFPOSX1_117
*273 DFFPOSX1_25
*274 DFFPOSX1_27
*275 DFFPOSX1_118
*276 DFFPOSX1_22
*277 DFFPOSX1_116
*278 DFFPOSX1_32
*279 DFFPOSX1_24
*280 clock_bF_buf1
*281 CLKBUF1_7
*282 DFFPOSX1_96
*283 DFFPOSX1_31
*284 DFFPOSX1_30
*285 DFFPOSX1_93
*286 DFFPOSX1_49
*287 DFFPOSX1_28
*288 DFFPOSX1_29
*289 DFFPOSX1_62
*290 DFFPOSX1_26
*291 clock_bF_buf0
*292 CLKBUF1_8
*293 DFFPOSX1_50
*294 DFFPOSX1_51
*295 DFFPOSX1_54
*296 DFFPOSX1_64
*297 DFFPOSX1_92
*298 DFFPOSX1_94
*299 DFFPOSX1_52
*300 DFFPOSX1_95
*301 DFFPOSX1_56
*302 clock
*303 CLKBUF1_7
*304 CLKBUF1_8
*305 CLKBUF1_3
*306 CLKBUF1_5
*307 CLKBUF1_1
*308 CLKBUF1_2
*309 CLKBUF1_4
*310 CLKBUF1_6
*311 fsm1_pre_state[0]
*312 DFFPOSX1_116
*313 DFFPOSX1_113
*314 NOR3X1_6
*315 NOR2X1_46
*316 NAND2X1_23
*317 OAI21X1_39
*318 INVX1_18
*319 NAND2X1_21
*320 NOR3X1_7
*321 fsm1__25__bF_buf4
*322 BUFX4_5
*323 NAND2X1_34
*324 OAI21X1_46
*325 OAI21X1_53
*326 NAND2X1_39
*327 OAI21X1_52
*328 NAND2X1_38
*329 OAI21X1_51
*330 fsm1__25__bF_buf3
*331 BUFX4_6
*332 NAND2X1_40
*333 OAI21X1_54
*334 NAND2X1_41
*335 NAND2X1_37
*336 OAI21X1_49
*337 AOI22X1_3
*338 NAND2X1_49
*339 fsm1__25__bF_buf2
*340 BUFX4_7
*341 NAND2X1_46
*342 OAI21X1_61
*343 NAND2X1_48
*344 OAI21X1_63
*345 OAI21X1_62
*346 NAND2X1_47
*347 OAI21X1_64
*348 _84__bF_buf4
*349 BUFX4_10
*350 OAI21X1_27
*351 OAI21X1_25
*352 AOI21X1_18
*353 OAI21X1_30
*354 AOI21X1_19
*355 OAI21X1_22
*356 AOI21X1_15
*357 _84__bF_buf3
*358 BUFX4_11
*359 AOI21X1_22
*360 AOI21X1_24
*361 AOI21X1_23
*362 OAI21X1_36
*363 OAI21X1_35
*364 OAI21X1_33
*365 AOI21X1_20
*366 fsm1_one_second
*367 DFFPOSX1_1
*368 DFFPOSX1_2
*369 NAND3X1_20
*370 NOR2X1_58
*371 INVX2_10
*372 NOR2X1_50
*373 NAND3X1_17
*374 NAND2X1_55
*375 count1_current_time_ms_min[0]
*376 DFFPOSX1_93
*377 NOR2X1_98
*378 DFFPOSX1_77
*379 AND2X2_17
*380 NAND2X1_5
*381 NAND2X1_7
*382 INVX2_2
*383 INVX1_53
*384 count1_current_time_ls_min[0]
*385 DFFPOSX1_69
*386 DFFPOSX1_85
*387 XNOR2X1_2
*388 NAND3X1_2
*389 NAND2X1_3
*390 NOR2X1_90
*391 AND2X2_13
*392 INVX1_41
*393 count1_current_time_ls_min[1]
*394 DFFPOSX1_70
*395 DFFPOSX1_86
*396 AND2X2_14
*397 NOR2X1_91
*398 INVX2_4
*399 NAND2X1_11
*400 NOR2X1_29
*401 INVX1_42
*402 _90_
*403 NAND2X1_4
*404 XNOR2X1_1
*405 NOR3X1_4
*406 NOR2X1_41
*407 OAI21X1_12
*408 NOR2X1_32
*409 OAI21X1_14
*410 OR2X2_2
*411 count1_current_time_ms_min[1]
*412 DFFPOSX1_78
*413 NAND2X1_5
*414 DFFPOSX1_94
*415 NOR2X1_39
*416 INVX1_7
*417 INVX1_54
*418 NOR2X1_99
*419 AND2X2_18
*420 count1_current_time_ms_hr[1]
*421 DFFPOSX1_90
*422 DFFPOSX1_74
*423 NAND2X1_18
*424 INVX1_15
*425 NAND3X1_8
*426 AND2X2_16
*427 INVX1_48
*428 NOR2X1_95
*429 fsm1__22_
*430 NOR3X1_5
*431 AOI22X1_1
*432 AOI21X1_30
*433 NAND2X1_27
*434 NAND3X1_21
*435 AOI22X1_3
*436 INVX1_19
*437 NAND3X1_22
*438 fsm1__25__bF_buf1
*439 BUFX4_8
*440 NAND2X1_44
*441 OAI21X1_58
*442 NAND2X1_36
*443 NAND2X1_35
*444 OAI21X1_47
*445 OAI21X1_48
*446 fsm1__25__bF_buf0
*447 BUFX4_9
*448 OAI21X1_56
*449 NAND2X1_42
*450 OAI21X1_57
*451 OAI21X1_59
*452 NAND2X1_45
*453 NAND2X1_43
*454 _84__bF_buf2
*455 BUFX4_12
*456 AOI21X1_9
*457 OAI21X1_11
*458 OAI21X1_38
*459 AOI21X1_25
*460 OAI21X1_32
*461 AOI21X1_21
*462 _84__bF_buf1
*463 BUFX4_13
*464 OAI21X1_19
*465 AOI21X1_17
*466 OAI21X1_24
*467 OAI21X1_18
*468 OAI21X1_20
*469 AOI21X1_13
*470 _84__bF_buf0
*471 BUFX4_14
*472 OAI21X1_17
*473 OAI21X1_15
*474 OAI21X1_13
*475 AOI21X1_11
*476 AOI21X1_10
*477 OAI21X1_16
*478 alreg1_new_alarm_ls_min[0]
*479 DFFPOSX1_123
*480 MUX2X1_21
*481 DFFPOSX1_139
*482 OAI21X1_18
*483 MUX2X1_37
*484 MUX2X1_1
*485 MUX2X1_29
*486 alreg1_new_alarm_ls_min[1]
*487 DFFPOSX1_124
*488 DFFPOSX1_140
*489 MUX2X1_22
*490 MUX2X1_39
*491 OAI21X1_20
*492 MUX2X1_30
*493 MUX2X1_2
*494 alreg1_new_alarm_ls_min[2]
*495 DFFPOSX1_141
*496 DFFPOSX1_125
*497 MUX2X1_23
*498 OAI21X1_22
*499 MUX2X1_31
*500 MUX2X1_3
*501 MUX2X1_40
*502 alreg1_new_alarm_ls_min[3]
*503 DFFPOSX1_126
*504 DFFPOSX1_142
*505 MUX2X1_4
*506 OAI21X1_24
*507 MUX2X1_38
*508 MUX2X1_32
*509 MUX2X1_24
*510 alreg1_new_alarm_ms_min[0]
*511 DFFPOSX1_147
*512 DFFPOSX1_131
*513 OAI21X1_11
*514 MUX2X1_9
*515 MUX2X1_29
*516 MUX2X1_25
*517 MUX2X1_45
*518 alreg1_new_alarm_ms_min[1]
*519 DFFPOSX1_148
*520 DFFPOSX1_132
*521 MUX2X1_26
*522 OAI21X1_13
*523 MUX2X1_10
*524 MUX2X1_30
*525 MUX2X1_47
*526 alreg1_new_alarm_ms_min[2]
*527 DFFPOSX1_133
*528 MUX2X1_31
*529 DFFPOSX1_149
*530 OAI21X1_15
*531 MUX2X1_27
*532 MUX2X1_48
*533 MUX2X1_11
*534 alreg1_new_alarm_ms_min[3]
*535 DFFPOSX1_150
*536 DFFPOSX1_134
*537 MUX2X1_28
*538 OAI21X1_17
*539 MUX2X1_12
*540 MUX2X1_32
*541 MUX2X1_46
*542 alreg1_new_alarm_ls_hr[0]
*543 DFFPOSX1_119
*544 MUX2X1_25
*545 MUX2X1_13
*546 DFFPOSX1_135
*547 MUX2X1_33
*548 OAI21X1_25
*549 MUX2X1_17
*550 alreg1_new_alarm_ls_hr[1]
*551 DFFPOSX1_136
*552 MUX2X1_26
*553 DFFPOSX1_120
*554 MUX2X1_14
*555 OAI21X1_27
*556 MUX2X1_35
*557 MUX2X1_18
*558 alreg1_new_alarm_ls_hr[2]
*559 DFFPOSX1_137
*560 OAI21X1_30
*561 DFFPOSX1_121
*562 MUX2X1_27
*563 MUX2X1_15
*564 MUX2X1_36
*565 MUX2X1_19
*566 alreg1_new_alarm_ls_hr[3]
*567 DFFPOSX1_122
*568 MUX2X1_28
*569 DFFPOSX1_138
*570 MUX2X1_16
*571 MUX2X1_34
*572 OAI21X1_32
*573 MUX2X1_20
*574 count1_current_time_ms_min[3]
*575 DFFPOSX1_80
*576 DFFPOSX1_96
*577 XOR2X1_7
*578 INVX1_56
*579 NOR2X1_40
*580 AOI21X1_12
*581 INVX1_9
*582 count1_current_time_ms_min[2]
*583 DFFPOSX1_95
*584 DFFPOSX1_79
*585 NAND2X1_10
*586 INVX1_10
*587 NAND2X1_8
*588 INVX1_55
*589 XOR2X1_8
*590 count1_current_time_ls_hr[0]
*591 DFFPOSX1_65
*592 DFFPOSX1_81
*593 INVX1_35
*594 NOR2X1_86
*595 AND2X2_11
*596 NAND2X1_13
*597 INVX4_1
*598 count1_current_time_ls_hr[1]
*599 DFFPOSX1_66
*600 NOR2X1_42
*601 DFFPOSX1_82
*602 INVX1_12
*603 AND2X2_12
*604 NOR2X1_87
*605 INVX1_36
*606 count1_current_time_ls_hr[2]
*607 DFFPOSX1_83
*608 DFFPOSX1_67
*609 INVX2_5
*610 NOR2X1_43
*611 NAND2X1_16
*612 INVX1_37
*613 XOR2X1_2
*614 count1_current_time_ls_hr[3]
*615 DFFPOSX1_84
*616 DFFPOSX1_68
*617 NAND3X1_9
*618 INVX1_13
*619 NAND2X1_14
*620 XOR2X1_1
*621 INVX1_38
*622 count1_current_time_ms_hr[0]
*623 DFFPOSX1_73
*624 DFFPOSX1_89
*625 NAND2X1_18
*626 INVX2_6
*627 INVX1_47
*628 AND2X2_15
*629 NOR2X1_94
*630 count1_current_time_ms_hr[3]
*631 DFFPOSX1_92
*632 XOR2X1_5
*633 DFFPOSX1_76
*634 NAND3X1_15
*635 INVX1_16
*636 NOR2X1_37
*637 INVX1_50
*638 count1_current_time_ms_hr[2]
*639 DFFPOSX1_91
*640 DFFPOSX1_75
*641 INVX2_7
*642 NAND3X1_15
*643 INVX1_49
*644 XOR2X1_6
*645 NOR2X1_37
*646 fsm1_pre_state[2]
*647 DFFPOSX1_118
*648 NOR3X1_8
*649 DFFPOSX1_115
*650 INVX2_9
*651 NOR2X1_45
*652 NOR3X1_5
*653 NOR3X1_7
*654 fsm1_show_new_time_bF_buf3
*655 BUFX4_1
*656 INVX1_40
*657 MUX2X1_48
*658 MUX2X1_47
*659 INVX1_58
*660 MUX2X1_46
*661 fsm1_show_new_time_bF_buf2
*662 BUFX4_2
*663 INVX1_46
*664 MUX2X1_44
*665 MUX2X1_41
*666 MUX2X1_43
*667 MUX2X1_42
*668 fsm1_show_new_time_bF_buf1
*669 BUFX4_3
*670 MUX2X1_34
*671 MUX2X1_35
*672 MUX2X1_33
*673 MUX2X1_36
*674 MUX2X1_45
*675 fsm1_show_new_time_bF_buf0
*676 BUFX4_4
*677 MUX2X1_39
*678 MUX2X1_37
*679 INVX1_52
*680 MUX2X1_40
*681 MUX2X1_38
*682 fsm1__25_
*683 NOR2X1_45
*684 BUFX4_6
*685 BUFX4_5
*686 BUFX4_8
*687 BUFX4_9
*688 BUFX4_7
*689 _84_
*690 INVX8_1
*691 BUFX4_13
*692 BUFX4_10
*693 BUFX4_12
*694 BUFX4_11
*695 BUFX4_14
*696 tgen1_count[2]
*697 DFFPOSX1_5
*698 DFFPOSX1_20
*699 AOI21X1_1
*700 OAI21X1_68
*701 NAND2X1_53
*702 AOI21X1_2
*703 tgen1_count[4]
*704 DFFPOSX1_22
*705 NAND2X1_50
*706 DFFPOSX1_7
*707 AND2X2_19
*708 OAI21X1_2
*709 NAND2X1_1
*710 tgen1_count[5]
*711 DFFPOSX1_8
*712 AND2X2_20
*713 NAND2X1_51
*714 DFFPOSX1_23
*715 INVX1_1
*716 OAI21X1_3
*717 _325_
*718 INVX2_15
*719 NOR2X1_105
*720 NOR2X1_107
*721 AOI21X1_5
*722 AOI21X1_7
*723 NOR2X1_108
*724 tgen1_count[11]
*725 DFFPOSX1_14
*726 DFFPOSX1_29
*727 AOI21X1_8
*728 NAND2X1_58
*729 NOR2X1_8
*730 INVX1_6
*731 alarm_time_ls_min[0]
*732 DFFPOSX1_41
*733 DFFPOSX1_57
*734 NOR2X1_90
*735 AND2X2_13
*736 MUX2X1_1
*737 NAND2X1_38
*738 alarm_time_ls_min[1]
*739 DFFPOSX1_58
*740 DFFPOSX1_42
*741 NAND2X1_39
*742 AND2X2_14
*743 NOR2X1_91
*744 MUX2X1_2
*745 alreg1_new_alarm_ms_hr[0]
*746 DFFPOSX1_127
*747 DFFPOSX1_143
*748 MUX2X1_17
*749 OAI21X1_33
*750 MUX2X1_41
*751 MUX2X1_5
*752 alarm_time_ms_hr[0]
*753 DFFPOSX1_61
*754 DFFPOSX1_45
*755 MUX2X1_5
*756 AND2X2_15
*757 NOR2X1_94
*758 NAND2X1_42
*759 alreg1_new_alarm_ms_hr[1]
*760 DFFPOSX1_144
*761 DFFPOSX1_128
*762 MUX2X1_18
*763 OAI21X1_35
*764 MUX2X1_43
*765 MUX2X1_6
*766 alarm_time_ms_hr[1]
*767 DFFPOSX1_46
*768 DFFPOSX1_62
*769 AND2X2_16
*770 NOR2X1_95
*771 NAND2X1_43
*772 MUX2X1_6
*773 alreg1_new_alarm_ms_hr[2]
*774 DFFPOSX1_129
*775 DFFPOSX1_145
*776 MUX2X1_44
*777 MUX2X1_7
*778 OAI21X1_36
*779 MUX2X1_19
*780 alreg1_new_alarm_ms_hr[3]
*781 DFFPOSX1_130
*782 MUX2X1_42
*783 MUX2X1_8
*784 OAI21X1_38
*785 DFFPOSX1_146
*786 MUX2X1_20
*787 alarm_time_ms_min[0]
*788 DFFPOSX1_49
*789 DFFPOSX1_33
*790 NAND2X1_46
*791 MUX2X1_9
*792 AND2X2_17
*793 NOR2X1_98
*794 alarm_time_ms_min[1]
*795 DFFPOSX1_50
*796 DFFPOSX1_34
*797 MUX2X1_10
*798 NAND2X1_47
*799 AND2X2_18
*800 NOR2X1_99
*801 alarm_time_ls_hr[0]
*802 DFFPOSX1_53
*803 DFFPOSX1_37
*804 MUX2X1_13
*805 NAND2X1_34
*806 NOR2X1_86
*807 AND2X2_11
*808 alarm_time_ls_hr[1]
*809 DFFPOSX1_54
*810 DFFPOSX1_38
*811 NAND2X1_35
*812 NOR2X1_87
*813 AND2X2_12
*814 MUX2X1_14
*815 count1_current_time_ls_min[3]
*816 DFFPOSX1_72
*817 NAND2X1_6
*818 INVX2_3
*819 DFFPOSX1_88
*820 XOR2X1_3
*821 INVX1_44
*822 count1_current_time_ls_min[2]
*823 DFFPOSX1_87
*824 DFFPOSX1_71
*825 NOR2X1_28
*826 INVX1_43
*827 XOR2X1_4
*828 INVX1_8
*829 _102_
*830 NOR2X1_30
*831 AOI21X1_16
*832 NAND2X1_9
*833 NAND3X1_11
*834 NAND3X1_6
*835 NAND3X1_5
*836 _107_
*837 NAND2X1_9
*838 XNOR2X1_3
*839 OAI21X1_26
*840 OAI21X1_31
*841 NAND3X1_3
*842 NAND3X1_4
*843 fsm1_pre_state[1]
*844 DFFPOSX1_117
*845 DFFPOSX1_114
*846 NOR3X1_7
*847 NOR3X1_5
*848 INVX2_8
*849 NAND2X1_21
*850 _198_
*851 INVX2_8
*852 NAND2X1_22
*853 NAND2X1_23
*854 OAI21X1_39
*855 NOR3X1_6
*856 NOR2X1_46
*857 _199_
*858 INVX2_9
*859 NOR2X1_48
*860 NOR2X1_47
*861 AND2X2_4
*862 OR2X2_9
*863 NOR3X1_6
*864 fsm1_count2[0]
*865 DFFPOSX1_97
*866 DFFPOSX1_101
*867 NOR2X1_51
*868 INVX1_20
*869 NAND3X1_17
*870 NAND3X1_16
*871 fsm1_count1[0]
*872 DFFPOSX1_109
*873 DFFPOSX1_105
*874 NAND3X1_20
*875 NAND3X1_19
*876 INVX1_23
*877 NOR2X1_57
*878 _177_
*879 NAND2X1_30
*880 NOR2X1_63
*881 NOR2X1_64
*882 NOR2X1_65
*883 NOR2X1_68
*884 INVX1_27
*885 alarm_button
*886 OR2X2_8
*887 NOR2X1_66
*888 OR2X2_6
*889 NOR2X1_67
*890 INVX2_14
*891 _182_
*892 INVX2_14
*893 NAND3X1_22
*894 AND2X2_7
*895 NAND2X1_31
*896 AND2X2_9
*897 AND2X2_6
*898 fsm1_show_new_time
*899 OAI21X1_39
*900 BUFX4_2
*901 BUFX4_3
*902 BUFX4_4
*903 BUFX4_1
*904 _339_
*905 INVX2_17
*906 AOI21X1_2
*907 NOR2X1_109
*908 OAI21X1_68
*909 AOI21X1_1
*910 _320_
*911 NAND2X1_52
*912 INVX2_17
*913 NOR2X1_103
*914 OR2X2_10
*915 OAI21X1_1
*916 _322_
*917 NOR2X1_103
*918 OAI21X1_2
*919 NAND2X1_1
*920 NAND2X1_54
*921 NAND3X1_1
*922 _345_
*923 INVX2_1
*924 AOI21X1_4
*925 NOR2X1_2
*926 OAI21X1_3
*927 AOI21X1_3
*928 tgen1_count[6]
*929 DFFPOSX1_24
*930 DFFPOSX1_9
*931 AND2X2_20
*932 NAND2X1_51
*933 OAI21X1_4
*934 tgen1_count[7]
*935 DFFPOSX1_25
*936 DFFPOSX1_10
*937 AOI21X1_4
*938 AND2X2_19
*939 NAND2X1_50
*940 _323_
*941 NAND2X1_54
*942 AOI21X1_5
*943 OR2X2_1
*944 OAI21X1_6
*945 NOR2X1_105
*946 tgen1_count[10]
*947 DFFPOSX1_28
*948 DFFPOSX1_13
*949 NAND2X1_2
*950 NOR2X1_6
*951 INVX2_16
*952 _333_
*953 NOR3X1_13
*954 NAND2X1_60
*955 AOI21X1_7
*956 NAND2X1_2
*957 NOR2X1_6
*958 tgen1_count[13]
*959 DFFPOSX1_16
*960 NAND2X1_59
*961 OAI21X1_10
*962 DFFPOSX1_31
*963 AND2X2_2
*964 tgen1_count[0]
*965 DFFPOSX1_3
*966 DFFPOSX1_18
*967 NOR2X1_108
*968 OAI21X1_67
*969 NAND2X1_52
*970 alarm_time_ls_min[2]
*971 DFFPOSX1_59
*972 XOR2X1_4
*973 DFFPOSX1_43
*974 MUX2X1_3
*975 NAND2X1_40
*976 alarm_time_ls_min[3]
*977 DFFPOSX1_60
*978 DFFPOSX1_44
*979 MUX2X1_4
*980 XOR2X1_3
*981 NAND2X1_41
*982 alarm_time_ms_hr[2]
*983 DFFPOSX1_63
*984 DFFPOSX1_47
*985 MUX2X1_7
*986 XOR2X1_6
*987 NAND2X1_44
*988 alarm_time_ms_hr[3]
*989 DFFPOSX1_48
*990 DFFPOSX1_64
*991 NAND2X1_45
*992 XOR2X1_5
*993 MUX2X1_8
*994 alarm_time_ms_min[2]
*995 DFFPOSX1_51
*996 XOR2X1_8
*997 NAND2X1_48
*998 DFFPOSX1_35
*999 MUX2X1_11
*1000 alarm_time_ms_min[3]
*1001 DFFPOSX1_36
*1002 DFFPOSX1_52
*1003 MUX2X1_12
*1004 NAND2X1_49
*1005 XOR2X1_7
*1006 alarm_time_ls_hr[2]
*1007 DFFPOSX1_39
*1008 DFFPOSX1_55
*1009 MUX2X1_15
*1010 NAND2X1_36
*1011 XOR2X1_2
*1012 alarm_time_ls_hr[3]
*1013 DFFPOSX1_56
*1014 XOR2X1_1
*1015 DFFPOSX1_40
*1016 NAND2X1_37
*1017 MUX2X1_16
*1018 _106_
*1019 NOR2X1_31
*1020 NAND3X1_6
*1021 NAND2X1_9
*1022 NAND3X1_11
*1023 NAND3X1_5
*1024 _28_
*1025 INVX4_1
*1026 NOR2X1_35
*1027 OAI21X1_26
*1028 NOR2X1_42
*1029 XNOR2X1_3
*1030 _36_
*1031 INVX2_5
*1032 OAI21X1_28
*1033 OAI21X1_29
*1034 NAND2X1_15
*1035 NAND2X1_14
*1036 _39_
*1037 NAND3X1_6
*1038 NAND3X1_7
*1039 XNOR2X1_4
*1040 OAI21X1_34
*1041 NAND3X1_10
*1042 fsm1__24_
*1043 NOR3X1_6
*1044 AOI21X1_28
*1045 AND2X2_10
*1046 NAND3X1_18
*1047 NAND2X1_24
*1048 _134_
*1049 NOR3X1_7
*1050 AND2X2_9
*1051 AOI22X1_1
*1052 AOI22X1_2
*1053 AOI22X1_4
*1054 fsm1_count2[1]
*1055 DFFPOSX1_102
*1056 NAND3X1_17
*1057 DFFPOSX1_98
*1058 INVX1_21
*1059 NOR2X1_49
*1060 fsm1_count2[3]
*1061 DFFPOSX1_104
*1062 DFFPOSX1_100
*1063 INVX1_22
*1064 OAI21X1_42
*1065 NAND3X1_16
*1066 _143_
*1067 INVX2_10
*1068 NOR2X1_51
*1069 OAI21X1_41
*1070 OAI21X1_44
*1071 NOR2X1_57
*1072 _146_
*1073 INVX2_11
*1074 NAND2X1_24
*1075 NAND3X1_18
*1076 NAND3X1_21
*1077 NAND2X1_27
*1078 _150_
*1079 NAND3X1_17
*1080 NAND2X1_25
*1081 OAI21X1_42
*1082 NOR2X1_55
*1083 XNOR2X1_6
*1084 fsm1_count1[1]
*1085 DFFPOSX1_110
*1086 NAND3X1_20
*1087 DFFPOSX1_106
*1088 INVX1_24
*1089 NOR2X1_56
*1090 fsm1_count1[3]
*1091 DFFPOSX1_112
*1092 DFFPOSX1_108
*1093 OAI21X1_45
*1094 NAND3X1_19
*1095 INVX1_25
*1096 _168_
*1097 NAND3X1_20
*1098 XNOR2X1_7
*1099 OAI21X1_45
*1100 NOR2X1_62
*1101 NAND2X1_28
*1102 tgen1_count[3]
*1103 DFFPOSX1_6
*1104 DFFPOSX1_21
*1105 NAND2X1_53
*1106 AOI21X1_2
*1107 _321_
*1108 NAND2X1_53
*1109 NOR2X1_103
*1110 OR2X2_10
*1111 OAI21X1_1
*1112 _329_
*1113 AND2X2_20
*1114 AOI21X1_3
*1115 AOI21X1_4
*1116 NAND2X1_56
*1117 tgen1_count[8]
*1118 DFFPOSX1_26
*1119 INVX1_2
*1120 DFFPOSX1_11
*1121 NAND2X1_57
*1122 tgen1_count[9]
*1123 DFFPOSX1_27
*1124 DFFPOSX1_12
*1125 NAND2X1_57
*1126 INVX1_3
*1127 _332_
*1128 NAND2X1_57
*1129 INVX1_4
*1130 NOR3X1_13
*1131 OAI21X1_6
*1132 _360_
*1133 NAND3X1_1
*1134 OAI21X1_7
*1135 NOR3X1_2
*1136 NOR2X1_7
*1137 _335_
*1138 INVX2_16
*1139 NOR2X1_7
*1140 NOR3X1_2
*1141 NAND2X1_59
*1142 _361_
*1143 NOR2X1_7
*1144 AOI21X1_8
*1145 NOR2X1_8
*1146 NOR3X1_1
*1147 _337_
*1148 NOR2X1_106
*1149 AOI21X1_7
*1150 NAND2X1_60
*1151 INVX1_5
*1152 _310_
*1153 AOI21X1_7
*1154 OAI21X1_10
*1155 OAI21X1_9
*1156 OAI21X1_8
*1157 tgen1_count[12]
*1158 DFFPOSX1_15
*1159 DFFPOSX1_30
*1160 NAND2X1_58
*1161 AOI21X1_8
*1162 _334_
*1163 NAND2X1_58
*1164 NOR2X1_106
*1165 NOR3X1_2
*1166 OAI21X1_9
*1167 tgen1_count[1]
*1168 DFFPOSX1_4
*1169 DFFPOSX1_19
*1170 OAI21X1_67
*1171 NAND2X1_52
*1172 _85_
*1173 INVX2_2
*1174 NOR2X1_39
*1175 OAI21X1_12
*1176 XNOR2X1_1
*1177 _86_
*1178 INVX2_3
*1179 OAI21X1_23
*1180 AOI21X1_16
*1181 NOR2X1_28
*1182 count1_one_minute
*1183 OAI21X1_66
*1184 XNOR2X1_2
*1185 NAND3X1_2
*1186 NAND2X1_3
*1187 _88_
*1188 NAND2X1_3
*1189 NOR2X1_29
*1190 INVX1_11
*1191 OAI21X1_21
*1192 _96_
*1193 NAND2X1_5
*1194 NOR2X1_32
*1195 OAI21X1_14
*1196 OR2X2_2
*1197 _98_
*1198 INVX1_8
*1199 NAND2X1_6
*1200 OR2X2_3
*1201 OAI21X1_21
*1202 _100_
*1203 INVX2_4
*1204 NAND3X1_2
*1205 OAI21X1_19
*1206 OAI21X1_21
*1207 _21_
*1208 OR2X2_3
*1209 OAI21X1_23
*1210 AOI21X1_16
*1211 NAND2X1_12
*1212 _31_
*1213 INVX1_12
*1214 NOR2X1_35
*1215 NAND2X1_13
*1216 OAI21X1_26
*1217 _33_
*1218 NOR2X1_35
*1219 NAND3X1_5
*1220 NAND2X1_16
*1221 NAND3X1_12
*1222 _34_
*1223 NAND3X1_5
*1224 OAI21X1_29
*1225 OAI21X1_28
*1226 NAND3X1_7
*1227 _42_
*1228 INVX1_13
*1229 OAI21X1_31
*1230 NAND2X1_15
*1231 NOR2X1_43
*1232 _44_
*1233 INVX2_6
*1234 NAND3X1_8
*1235 OAI21X1_34
*1236 XNOR2X1_4
*1237 _67_
*1238 NAND3X1_11
*1239 XNOR2X1_5
*1240 NAND3X1_13
*1241 OAI21X1_37
*1242 fsm1__39_
*1243 NAND2X1_20
*1244 INVX1_26
*1245 AND2X2_10
*1246 AND2X2_8
*1247 _200_
*1248 NOR2X1_46
*1249 AOI22X1_4
*1250 AND2X2_4
*1251 AOI22X1_2
*1252 fsm1_count2[2]
*1253 DFFPOSX1_103
*1254 DFFPOSX1_99
*1255 INVX2_12
*1256 NOR2X1_49
*1257 _140_
*1258 NAND3X1_16
*1259 NAND3X1_18
*1260 OAI21X1_40
*1261 NAND2X1_30
*1262 _153_
*1263 INVX2_12
*1264 OAI21X1_42
*1265 NOR2X1_55
*1266 XNOR2X1_6
*1267 fsm1_count1[2]
*1268 DFFPOSX1_111
*1269 DFFPOSX1_107
*1270 INVX2_13
*1271 NOR2X1_56
*1272 _160_
*1273 NAND3X1_19
*1274 NAND2X1_30
*1275 NAND3X1_21
*1276 OAI21X1_43
*1277 _171_
*1278 INVX2_13
*1279 OAI21X1_45
*1280 NOR2X1_62
*1281 XNOR2X1_7
*1282 time_button
*1283 OR2X2_4
*1284 INVX1_31
*1285 OR2X2_5
*1286 _239_
*1287 MUX2X1_34
*1288 AOI21X1_33
*1289 OAI21X1_50
*1290 INVX1_39
*1291 _241_
*1292 MUX2X1_36
*1293 AOI21X1_33
*1294 OAI21X1_50
*1295 NOR2X1_89
*1296 _261_
*1297 MUX2X1_38
*1298 OAI21X1_55
*1299 AOI21X1_34
*1300 INVX1_45
*1301 _263_
*1302 MUX2X1_40
*1303 AOI21X1_34
*1304 OAI21X1_55
*1305 NOR2X1_93
*1306 _283_
*1307 MUX2X1_42
*1308 AOI21X1_35
*1309 OAI21X1_60
*1310 INVX1_51
*1311 _285_
*1312 MUX2X1_44
*1313 AOI21X1_35
*1314 OAI21X1_60
*1315 NOR2X1_97
*1316 _305_
*1317 MUX2X1_46
*1318 AOI21X1_36
*1319 OAI21X1_65
*1320 INVX1_57
*1321 _307_
*1322 MUX2X1_48
*1323 NOR2X1_101
*1324 OAI21X1_65
*1325 AOI21X1_36
*1326 tgen1__00_[2]
*1327 AOI21X1_1
*1328 DFFPOSX1_20
*1329 DFFPOSX1_5
*1330 tgen1__00_[3]
*1331 NOR2X1_1
*1332 DFFPOSX1_6
*1333 DFFPOSX1_21
*1334 _344_
*1335 NAND2X1_1
*1336 NOR2X1_3
*1337 INVX2_1
*1338 tgen1__00_[4]
*1339 NOR2X1_2
*1340 DFFPOSX1_7
*1341 DFFPOSX1_22
*1342 _348_
*1343 NOR2X1_3
*1344 NOR2X1_4
*1345 OAI21X1_4
*1346 tgen1__00_[5]
*1347 NOR2X1_4
*1348 DFFPOSX1_8
*1349 DFFPOSX1_23
*1350 tgen1__00_[6]
*1351 AOI21X1_3
*1352 DFFPOSX1_24
*1353 DFFPOSX1_9
*1354 _331_
*1355 OR2X2_10
*1356 NOR3X1_13
*1357 OAI21X1_5
*1358 _330_
*1359 NAND2X1_56
*1360 NOR3X1_13
*1361 OAI21X1_5
*1362 tgen1__00_[7]
*1363 NOR2X1_5
*1364 DFFPOSX1_25
*1365 DFFPOSX1_10
*1366 _353_
*1367 INVX1_2
*1368 OR2X2_1
*1369 AOI21X1_5
*1370 _354_
*1371 OR2X2_1
*1372 AND2X2_1
*1373 AOI21X1_6
*1374 tgen1__00_[8]
*1375 AND2X2_1
*1376 DFFPOSX1_26
*1377 DFFPOSX1_11
*1378 tgen1__00_[9]
*1379 AOI21X1_6
*1380 DFFPOSX1_12
*1381 DFFPOSX1_27
*1382 _319_
*1383 NOR2X1_102
*1384 NAND2X1_54
*1385 NAND3X1_1
*1386 tgen1__00_[10]
*1387 NOR3X1_1
*1388 DFFPOSX1_13
*1389 DFFPOSX1_28
*1390 _309_
*1391 NAND2X1_2
*1392 OAI21X1_8
*1393 OAI21X1_9
*1394 tgen1__00_[11]
*1395 NOR2X1_9
*1396 DFFPOSX1_14
*1397 DFFPOSX1_29
*1398 tgen1__00_[12]
*1399 NOR2X1_10
*1400 DFFPOSX1_15
*1401 DFFPOSX1_30
*1402 _314_
*1403 NOR3X1_2
*1404 AND2X2_2
*1405 OAI21X1_10
*1406 tgen1__00_[13]
*1407 NOR2X1_11
*1408 DFFPOSX1_31
*1409 DFFPOSX1_16
*1410 tgen1__03_
*1411 NOR2X1_105
*1412 DFFPOSX1_2
*1413 DFFPOSX1_1
*1414 tgen1__00_[0]
*1415 NOR2X1_108
*1416 DFFPOSX1_18
*1417 DFFPOSX1_3
*1418 tgen1__00_[1]
*1419 NOR2X1_109
*1420 DFFPOSX1_19
*1421 DFFPOSX1_4
*1422 tgen1__02_
*1423 NOR2X1_107
*1424 DFFPOSX1_32
*1425 DFFPOSX1_17
*1426 tgen1_one_minute_reg
*1427 DFFPOSX1_17
*1428 DFFPOSX1_32
*1429 INVX1_59
*1430 _1_[3]
*1431 INVX1_39
*1432 BUFX2_5
*1433 NOR2X1_89
*1434 _2_[3]
*1435 INVX1_45
*1436 NOR2X1_93
*1437 BUFX2_13
*1438 _3_[3]
*1439 INVX1_51
*1440 NOR2X1_97
*1441 BUFX2_21
*1442 _4_[3]
*1443 INVX1_57
*1444 BUFX2_29
*1445 NOR2X1_101
*1446 alreg1__1_[0]
*1447 NOR2X1_12
*1448 DFFPOSX1_57
*1449 DFFPOSX1_41
*1450 alreg1__1_[1]
*1451 NOR2X1_13
*1452 DFFPOSX1_58
*1453 DFFPOSX1_42
*1454 alreg1__1_[2]
*1455 NOR2X1_14
*1456 DFFPOSX1_59
*1457 DFFPOSX1_43
*1458 alreg1__1_[3]
*1459 NOR2X1_15
*1460 DFFPOSX1_44
*1461 DFFPOSX1_60
*1462 alreg1__2_[0]
*1463 NOR2X1_16
*1464 DFFPOSX1_45
*1465 DFFPOSX1_61
*1466 alreg1__2_[1]
*1467 NOR2X1_17
*1468 DFFPOSX1_62
*1469 DFFPOSX1_46
*1470 alreg1__2_[2]
*1471 NOR2X1_18
*1472 DFFPOSX1_47
*1473 DFFPOSX1_63
*1474 alreg1__2_[3]
*1475 NOR2X1_19
*1476 DFFPOSX1_48
*1477 DFFPOSX1_64
*1478 alreg1__3_[0]
*1479 NOR2X1_20
*1480 DFFPOSX1_33
*1481 DFFPOSX1_49
*1482 alreg1__3_[1]
*1483 NOR2X1_21
*1484 DFFPOSX1_34
*1485 DFFPOSX1_50
*1486 alreg1__3_[2]
*1487 NOR2X1_22
*1488 DFFPOSX1_35
*1489 DFFPOSX1_51
*1490 alreg1__3_[3]
*1491 NOR2X1_23
*1492 DFFPOSX1_52
*1493 DFFPOSX1_36
*1494 alreg1__0_[0]
*1495 NOR2X1_24
*1496 DFFPOSX1_53
*1497 DFFPOSX1_37
*1498 alreg1__0_[1]
*1499 NOR2X1_25
*1500 DFFPOSX1_54
*1501 DFFPOSX1_38
*1502 alreg1__0_[2]
*1503 NOR2X1_26
*1504 DFFPOSX1_39
*1505 DFFPOSX1_55
*1506 alreg1__0_[3]
*1507 NOR2X1_27
*1508 DFFPOSX1_40
*1509 DFFPOSX1_56
*1510 count1_load_new_c
*1511 NOR2X1_48
*1512 NOR2X1_104
*1513 INVX8_1
*1514 _89_
*1515 NOR2X1_29
*1516 NAND2X1_4
*1517 AOI21X1_14
*1518 count1__03_[0]
*1519 AOI21X1_9
*1520 DFFPOSX1_93
*1521 DFFPOSX1_77
*1522 _94_
*1523 INVX1_7
*1524 NAND2X1_7
*1525 OAI21X1_12
*1526 _97_
*1527 OR2X2_2
*1528 NAND3X1_3
*1529 OAI21X1_16
*1530 _99_
*1531 NAND2X1_6
*1532 AOI21X1_14
*1533 NOR2X1_30
*1534 _105_
*1535 NAND2X1_8
*1536 OAI21X1_16
*1537 NOR2X1_31
*1538 count1__03_[1]
*1539 AOI21X1_10
*1540 DFFPOSX1_78
*1541 DFFPOSX1_94
*1542 _111_
*1543 NAND2X1_10
*1544 AOI21X1_12
*1545 NAND3X1_4
*1546 _112_
*1547 INVX1_10
*1548 OAI21X1_14
*1549 NOR2X1_40
*1550 count1__03_[2]
*1551 AOI21X1_11
*1552 DFFPOSX1_95
*1553 DFFPOSX1_79
*1554 count1__03_[3]
*1555 NOR2X1_33
*1556 DFFPOSX1_80
*1557 DFFPOSX1_96
*1558 count1__01_[0]
*1559 AOI21X1_13
*1560 DFFPOSX1_69
*1561 DFFPOSX1_85
*1562 _121_
*1563 INVX1_11
*1564 NAND2X1_11
*1565 OAI21X1_19
*1566 count1__01_[1]
*1567 NOR2X1_34
*1568 DFFPOSX1_70
*1569 DFFPOSX1_86
*1570 count1__01_[2]
*1571 AOI21X1_15
*1572 DFFPOSX1_87
*1573 DFFPOSX1_71
*1574 count1__01_[3]
*1575 AOI21X1_17
*1576 DFFPOSX1_88
*1577 DFFPOSX1_72
*1578 count1__00_[0]
*1579 AOI21X1_18
*1580 DFFPOSX1_81
*1581 DFFPOSX1_65
*1582 _35_
*1583 NAND2X1_13
*1584 NOR3X1_3
*1585 NOR2X1_36
*1586 _37_
*1587 NAND2X1_14
*1588 NOR2X1_36
*1589 NOR3X1_3
*1590 count1__00_[1]
*1591 AOI21X1_19
*1592 DFFPOSX1_82
*1593 DFFPOSX1_66
*1594 _47_
*1595 NOR2X1_38
*1596 OAI21X1_28
*1597 NAND3X1_12
*1598 count1__00_[2]
*1599 AOI21X1_20
*1600 DFFPOSX1_83
*1601 DFFPOSX1_67
*1602 _51_
*1603 NAND2X1_16
*1604 OAI21X1_31
*1605 INVX1_14
*1606 _55_
*1607 NAND2X1_17
*1608 NOR3X1_4
*1609 NOR2X1_41
*1610 _56_
*1611 NOR2X1_41
*1612 NAND3X1_12
*1613 NAND3X1_9
*1614 count1__00_[3]
*1615 AOI21X1_21
*1616 DFFPOSX1_84
*1617 DFFPOSX1_68
*1618 count1__02_[0]
*1619 AOI21X1_22
*1620 DFFPOSX1_89
*1621 DFFPOSX1_73
*1622 _65_
*1623 NAND2X1_18
*1624 INVX1_17
*1625 NOR3X1_3
*1626 count1__02_[1]
*1627 AOI21X1_23
*1628 DFFPOSX1_74
*1629 DFFPOSX1_90
*1630 _71_
*1631 INVX2_7
*1632 OAI21X1_37
*1633 XNOR2X1_5
*1634 count1__02_[2]
*1635 AOI21X1_24
*1636 DFFPOSX1_75
*1637 DFFPOSX1_91
*1638 count1__02_[3]
*1639 AOI21X1_25
*1640 DFFPOSX1_76
*1641 DFFPOSX1_92
*1642 key[0]
*1643 MUX2X1_21
*1644 NOR2X1_44
*1645 key[2]
*1646 NOR2X1_44
*1647 MUX2X1_23
*1648 key[1]
*1649 MUX2X1_22
*1650 AND2X2_3
*1651 key[3]
*1652 MUX2X1_24
*1653 AND2X2_3
*1654 _196_
*1655 NAND2X1_21
*1656 NOR3X1_8
*1657 NOR2X1_45
*1658 _197_
*1659 INVX1_18
*1660 NOR3X1_5
*1661 NAND2X1_22
*1662 _138_
*1663 INVX1_19
*1664 OAI21X1_39
*1665 NOR2X1_67
*1666 _141_
*1667 INVX1_20
*1668 OAI21X1_41
*1669 NOR2X1_50
*1670 _147_
*1671 NAND2X1_24
*1672 NOR2X1_52
*1673 NOR2X1_54
*1674 fsm1__01_[0]
*1675 NOR2X1_52
*1676 DFFPOSX1_97
*1677 DFFPOSX1_101
*1678 _152_
*1679 NAND3X1_18
*1680 NOR2X1_53
*1681 AOI21X1_26
*1682 fsm1__01_[1]
*1683 NOR2X1_53
*1684 DFFPOSX1_98
*1685 DFFPOSX1_102
*1686 fsm1__01_[2]
*1687 NOR2X1_54
*1688 DFFPOSX1_99
*1689 DFFPOSX1_103
*1690 fsm1__01_[3]
*1691 AOI21X1_26
*1692 DFFPOSX1_100
*1693 DFFPOSX1_104
*1694 _162_
*1695 INVX1_23
*1696 NOR2X1_58
*1697 OAI21X1_44
*1698 _165_
*1699 NAND2X1_27
*1700 NOR2X1_59
*1701 NOR2X1_61
*1702 fsm1__00_[0]
*1703 NOR2X1_59
*1704 DFFPOSX1_109
*1705 DFFPOSX1_105
*1706 _170_
*1707 NAND3X1_21
*1708 NOR2X1_60
*1709 AOI21X1_27
*1710 fsm1__00_[1]
*1711 NOR2X1_60
*1712 DFFPOSX1_110
*1713 DFFPOSX1_106
*1714 fsm1__00_[2]
*1715 NOR2X1_61
*1716 DFFPOSX1_111
*1717 DFFPOSX1_107
*1718 fsm1__00_[3]
*1719 AOI21X1_27
*1720 DFFPOSX1_108
*1721 DFFPOSX1_112
*1722 _181_
*1723 INVX1_31
*1724 AND2X2_5
*1725 NAND3X1_22
*1726 _183_
*1727 INVX1_32
*1728 NOR2X1_66
*1729 NAND2X1_31
*1730 _185_
*1731 NOR3X1_8
*1732 AOI21X1_30
*1733 AOI21X1_28
*1734 fsm1__03_[0]
*1735 AOI21X1_29
*1736 DFFPOSX1_113
*1737 DFFPOSX1_116
*1738 _189_
*1739 OR2X2_9
*1740 AOI22X1_2
*1741 AOI22X1_4
*1742 fsm1__03_[1]
*1743 AOI21X1_31
*1744 DFFPOSX1_114
*1745 DFFPOSX1_117
*1746 fsm1__03_[2]
*1747 AOI21X1_32
*1748 DFFPOSX1_115
*1749 DFFPOSX1_118
*1750 _193_
*1751 NAND3X1_22
*1752 NOR2X1_68
*1753 INVX1_34
*1754 keyreg1__2_[0]
*1755 NOR2X1_69
*1756 DFFPOSX1_127
*1757 DFFPOSX1_143
*1758 keyreg1__2_[1]
*1759 NOR2X1_70
*1760 DFFPOSX1_144
*1761 DFFPOSX1_128
*1762 keyreg1__2_[2]
*1763 NOR2X1_71
*1764 DFFPOSX1_129
*1765 DFFPOSX1_145
*1766 keyreg1__2_[3]
*1767 NOR2X1_72
*1768 DFFPOSX1_146
*1769 DFFPOSX1_130
*1770 keyreg1__1_[0]
*1771 NOR2X1_73
*1772 DFFPOSX1_139
*1773 DFFPOSX1_123
*1774 keyreg1__1_[1]
*1775 NOR2X1_74
*1776 DFFPOSX1_140
*1777 DFFPOSX1_124
*1778 keyreg1__1_[2]
*1779 NOR2X1_75
*1780 DFFPOSX1_125
*1781 DFFPOSX1_141
*1782 keyreg1__1_[3]
*1783 NOR2X1_76
*1784 DFFPOSX1_126
*1785 DFFPOSX1_142
*1786 keyreg1__0_[0]
*1787 NOR2X1_77
*1788 DFFPOSX1_119
*1789 DFFPOSX1_135
*1790 keyreg1__0_[1]
*1791 NOR2X1_78
*1792 DFFPOSX1_120
*1793 DFFPOSX1_136
*1794 keyreg1__0_[2]
*1795 NOR2X1_79
*1796 DFFPOSX1_121
*1797 DFFPOSX1_137
*1798 keyreg1__0_[3]
*1799 NOR2X1_80
*1800 DFFPOSX1_122
*1801 DFFPOSX1_138